-------------------------------------------------------
          Amber 16 PMEMD                              2016
          -------------------------------------------------------

  [-O]verwriting output

File Assignments:

 Here is the input file:

PROJECT: Hexanoic_wat: 100ps equil with no restraint
 &cntrl
   imin   =0,
   irest  =1,
   ntx    =5,
   ntb    =2,
   pres0  =1.0,
   ntp    =1,
   taup   =2.0,
   cut    =10,
   ntr    =0,
   ntc    =2,
   ntf    =2,
   tempi  =300.0,
   temp0  =300.0,
   ntt    =1,
   nstlim =50000,
   dt     =0.002,
   ntpr   =1000,
   ntwx   =1000,
   ntwr   =10000,
   iwrap  =1,
 &end
END

Note: ig = -1. Setting random seed to   268768 based on wallclock time in
      microseconds and disabling the synchronization of random numbers
      between tasks to improve performance.

--------------------------------------------------------------------------------
   1.  RESOURCE   USE:
--------------------------------------------------------------------------------

 getting box info from netcdf restart file
 NATOM  =   21671 NTYPES =       7 NBONH =   21663 MBONA  =       7
 NTHETH =      27 MTHETA =       7 NPHIH =      44 MPHIA  =      10
 NHPARM =       0 NPARM  =       0 NNB   =   28966 NRES   =    7218
 NBONA  =       7 NTHETA =       7 NPHIA =      10 NUMBND =       8
 NUMANG =       9 NPTRA  =      13 NATYP =       8 NPHB   =       0
 IFBOX  =       1 NMXRS  =      20 IFCAP =       0 NEXTRA =       0
 NCOPY  =       0

     BOX TYPE: RECTILINEAR

--------------------------------------------------------------------------------
   2.  CONTROL  DATA  FOR  THE  RUN
--------------------------------------------------------------------------------

UNL

General flags:
     imin    =       0, nmropt  =       0

Nature and format of input:
     ntx     =       5, irest   =       1, ntrx    =       1

Nature and format of output:
     ntxo    =       2, ntpr    =    1000, ntrx    =       1, ntwr    =   10000
     iwrap   =       1, ntwx    =    1000, ntwv    =       0, ntwe    =       0
     ioutfm  =       1, ntwprt  =       0, idecomp =       0, rbornstat=      0

Potential function:
     ntf     =       2, ntb     =       2, igb     =       0, nsnb    =      25
     ipol    =       0, gbsa    =       0, iesp    =       0
     dielc   =   1.00000, cut     =  10.00000, intdiel =   1.00000

Frozen or restrained atoms:
     ibelly  =       0, ntr     =       0

Molecular dynamics:
     nstlim  =     50000, nscm    =      1000, nrespa  =         1
     t       =   0.00000, dt      =   0.00200, vlimit  =  -1.00000

Berendsen (weak-coupling) temperature regulation:
     temp0   = 300.00000, tempi   = 300.00000, tautp   =   1.00000

Pressure regulation:
     ntp     =       1
     pres0   =   1.00000, comp    =  44.60000, taup    =   2.00000

SHAKE:
     ntc     =       2, jfastw  =       0
     tol     =   0.00001

Ewald parameters:
     verbose =       0, ew_type =       0, nbflag  =       1, use_pme =       1
     vdwmeth =       1, eedmeth =       1, netfrc  =       1
     Box X =   67.337   Box Y =   63.857   Box Z =   63.093
     Alpha =   90.000   Beta  =   90.000   Gamma =   90.000
     NFFT1 =   64       NFFT2 =   64       NFFT3 =   64
     Cutoff=   10.000   Tol   =0.100E-04
     Ewald Coefficient =  0.27511
     Interpolation order =    4

--------------------------------------------------------------------------------
   3.  ATOMIC COORDINATES AND VELOCITIES
--------------------------------------------------------------------------------

UNL
 begin time read from input coords =    20.000 ps

 Number of triangulated 3-point waters found:     7217

     Sum of charges from parm topology file =  -0.00100000
     Forcing neutrality...

--------------------------------------------------------------------------------
   4.  RESULTS
 NSTEP =     1000   TIME(PS) =      22.000  TEMP(K) =   299.04  PRESS =  -401.3
 Etot   =    -54517.3690  EKtot   =     12879.4990  EPtot      =    -67396.8681
 BOND   =         1.8353  ANGLE   =         7.5319  DIHED      =         3.8742
 1-4 NB =         1.8418  1-4 EEL =       -31.5092  VDWAALS    =     10091.4284
 EELEC  =    -77471.8705  EHBOND  =         0.0000  RESTRAINT  =         0.0000
 EKCMT  =      6541.7166  VIRIAL  =      8849.0118  VOLUME     =    266258.7474
                                                    Density    =         0.8116
 ------------------------------------------------------------------------------

      A V E R A G E S   O V E R      50 S T E P S

 NSTEP =    50000   TIME(PS) =     120.000  TEMP(K) =   300.24  PRESS =   -95.0
 Etot   =    -55753.1222  EKtot   =     12931.2022  EPtot      =    -68684.3245
 BOND   =         2.1434  ANGLE   =         8.0647  DIHED      =         3.9981
 1-4 NB =         1.9120  1-4 EEL =       -31.0233  VDWAALS    =     10240.1832
 EELEC  =    -78909.6025  EHBOND  =         0.0000  RESTRAINT  =         0.0000
 EKCMT  =      6494.0006  VIRIAL  =      6996.0285  VOLUME     =    225444.6502
                                                    Density    =         0.9610
 ------------------------------------------------------------------------------

      R M S  F L U C T U A T I O N S

 NSTEP =    50000   TIME(PS) =     120.000  TEMP(K) =     1.61  PRESS =   202.3
 Etot   =       386.8332  EKtot   =        69.1554  EPtot      =       397.2479
 BOND   =         1.2411  ANGLE   =         2.0913  DIHED      =         0.8756
 1-4 NB =         0.4691  1-4 EEL =         0.7832  VDWAALS    =       132.5604
 EELEC  =       485.6744  EHBOND  =         0.0000  RESTRAINT  =         0.0000
 EKCMT  =        59.5746  VIRIAL  =      1050.6483  VOLUME     =     12103.7421
                                                    Density    =         0.0464
 ------------------------------------------------------------------------------
