-------------------------------------------------------
          Amber 16 PMEMD                              2016
          -------------------------------------------------------

  [-O]verwriting output

File Assignments:

 Here is the input file:

PROJECT: Hexanoic_wat: 20ps heating with restraint on molecule
 &cntrl
   imin     =0,
   irest    =0,
   ntx      =1,
   ntb      =1,
   cut      =10,
   ntr      =1,
   ntc      =2,
   tempi    =0.0,
   temp0    =300.0,
   ntt      =3,
   gamma_ln =1.0,
   nstlim   =10000,
   dt       =0.002,
   ntpr     =1000,
   ntwx     =1000,
   ntwr     =10000,
   restraint_wt  =10.0,
   restraintmask =':1',
 &end
END

Note: ig = -1. Setting random seed to   598278 based on wallclock time in
      microseconds and disabling the synchronization of random numbers
      between tasks to improve performance.

--------------------------------------------------------------------------------
   1.  RESOURCE   USE:
--------------------------------------------------------------------------------

 getting box info from netcdf restart file
 NATOM  =   21671 NTYPES =       7 NBONH =   21663 MBONA  =       7
 NTHETH =      27 MTHETA =       7 NPHIH =      44 MPHIA  =      10
 NHPARM =       0 NPARM  =       0 NNB   =   28966 NRES   =    7218
 NBONA  =       7 NTHETA =       7 NPHIA =      10 NUMBND =       8
 NUMANG =       9 NPTRA  =      13 NATYP =       8 NPHB   =       0
 IFBOX  =       1 NMXRS  =      20 IFCAP =       0 NEXTRA =       0
 NCOPY  =       0

     BOX TYPE: RECTILINEAR

--------------------------------------------------------------------------------
   2.  CONTROL  DATA  FOR  THE  RUN
--------------------------------------------------------------------------------

UNL

General flags:
     imin    =       0, nmropt  =       0

Nature and format of input:
     ntx     =       1, irest   =       0, ntrx    =       1

Nature and format of output:
     ntxo    =       2, ntpr    =    1000, ntrx    =       1, ntwr    =   10000
     iwrap   =       0, ntwx    =    1000, ntwv    =       0, ntwe    =       0
     ioutfm  =       1, ntwprt  =       0, idecomp =       0, rbornstat=      0

Potential function:
     ntf     =       1, ntb     =       1, igb     =       0, nsnb    =      25
     ipol    =       0, gbsa    =       0, iesp    =       0
     dielc   =   1.00000, cut     =  10.00000, intdiel =   1.00000

Frozen or restrained atoms:
     ibelly  =       0, ntr     =       1
     restraint_wt =  10.00000

Molecular dynamics:
     nstlim  =     10000, nscm    =         0, nrespa  =         1
     t       =   0.00000, dt      =   0.00200, vlimit  =  -1.00000

Langevin dynamics temperature regulation:
     ig      =  598278
     temp0   = 300.00000, tempi   =   0.00000, gamma_ln=   1.00000

SHAKE:
     ntc     =       2, jfastw  =       0
     tol     =   0.00001

Ewald parameters:
     verbose =       0, ew_type =       0, nbflag  =       1, use_pme =       1
     vdwmeth =       1, eedmeth =       1, netfrc  =       1
     Box X =   67.337   Box Y =   63.857   Box Z =   63.093
     Alpha =   90.000   Beta  =   90.000   Gamma =   90.000
     NFFT1 =   64       NFFT2 =   64       NFFT3 =   64
     Cutoff=   10.000   Tol   =0.100E-04
     Ewald Coefficient =  0.27511
     Interpolation order =    4

    LOADING THE CONSTRAINED ATOMS AS GROUPS

   5.  REFERENCE ATOM COORDINATES

  UNL
     Mask :1; matches    20 atoms

--------------------------------------------------------------------------------
   3.  ATOMIC COORDINATES AND VELOCITIES
--------------------------------------------------------------------------------

UNL
 begin time read from input coords =     0.000 ps

 Number of triangulated 3-point waters found:     7217

     Sum of charges from parm topology file =  -0.00100000
     Forcing neutrality...

--------------------------------------------------------------------------------
   4.  RESULTS
 NSTEP =        0   TIME(PS) =       0.000  TEMP(K) =     0.00  PRESS =     0.0
 Etot   =    -92101.6843  EKtot   =         0.0000  EPtot      =    -92101.6843
 BOND   =      7792.3350  ANGLE   =         0.5586  DIHED      =         2.2491
 1-4 NB =         1.7058  1-4 EEL =       -30.9240  VDWAALS    =     22683.5469
 EELEC  =   -122551.1556  EHBOND  =         0.0000  RESTRAINT  =         0.0000
 ------------------------------------------------------------------------------

      A V E R A G E S   O V E R      10 S T E P S

 NSTEP =    10000   TIME(PS) =      20.000  TEMP(K) =   292.26  PRESS =     0.0
 Etot   =    -55157.1551  EKtot   =     12588.5000  EPtot      =    -67745.6551
 BOND   =         2.0006  ANGLE   =         7.7706  DIHED      =         2.5740
 1-4 NB =         1.9388  1-4 EEL =       -31.5318  VDWAALS    =     10270.4981
 EELEC  =    -78003.1894  EHBOND  =         0.0000  RESTRAINT  =         4.2841
 EAMBER (non-restraint)  =    -67749.9391
 ------------------------------------------------------------------------------

      R M S  F L U C T U A T I O N S

 NSTEP =    10000   TIME(PS) =      20.000  TEMP(K) =    15.76  PRESS =     0.0
 Etot   =      2131.7307  EKtot   =       678.6665  EPtot      =      1455.4547
 BOND   =         1.0313  ANGLE   =         1.9591  DIHED      =         0.4649
 1-4 NB =         0.5084  1-4 EEL =         0.7188  VDWAALS    =       633.5913
 EELEC  =      2081.8225  EHBOND  =         0.0000  RESTRAINT  =         1.2104
 EAMBER (non-restraint)  =      1454.2443
 ------------------------------------------------------------------------------
