-------------------------------------------------------
          Amber 16 PMEMD                              2016
          -------------------------------------------------------

  [-O]verwriting output

File Assignments:

 Here is the input file:

PROJECT: Hexanol_wat: 100ps equil with no restraint
 &cntrl
   imin   =0,
   irest  =1,
   ntx    =5,
   ntb    =2,
   pres0  =1.0,
   ntp    =1,
   taup   =2.0,
   cut    =10,
   ntr    =0,
   ntc    =2,
   ntf    =2,
   tempi  =300.0,
   temp0  =300.0,
   ntt    =1,
   nstlim =50000,
   dt     =0.002,
   ntpr   =1000,
   ntwx   =1000,
   ntwr   =10000,
   iwrap  =1,
 &end
END

Note: ig = -1. Setting random seed to   927526 based on wallclock time in
      microseconds and disabling the synchronization of random numbers
      between tasks to improve performance.

--------------------------------------------------------------------------------
   1.  RESOURCE   USE:
--------------------------------------------------------------------------------

 getting box info from netcdf restart file
 NATOM  =   21702 NTYPES =       6 NBONH =   21695 MBONA  =       6
 NTHETH =      32 MTHETA =       5 NPHIH =      47 MPHIA  =      10
 NHPARM =       0 NPARM  =       0 NNB   =   29014 NRES   =    7228
 NBONA  =       6 NTHETA =       5 NPHIA =      10 NUMBND =       7
 NUMANG =       8 NPTRA  =       9 NATYP =       7 NPHB   =       0
 IFBOX  =       1 NMXRS  =      21 IFCAP =       0 NEXTRA =       0
 NCOPY  =       0

     BOX TYPE: RECTILINEAR

--------------------------------------------------------------------------------
   2.  CONTROL  DATA  FOR  THE  RUN
--------------------------------------------------------------------------------

UNL

General flags:
     imin    =       0, nmropt  =       0

Nature and format of input:
     ntx     =       5, irest   =       1, ntrx    =       1

Nature and format of output:
     ntxo    =       2, ntpr    =    1000, ntrx    =       1, ntwr    =   10000
     iwrap   =       1, ntwx    =    1000, ntwv    =       0, ntwe    =       0
     ioutfm  =       1, ntwprt  =       0, idecomp =       0, rbornstat=      0

Potential function:
     ntf     =       2, ntb     =       2, igb     =       0, nsnb    =      25
     ipol    =       0, gbsa    =       0, iesp    =       0
     dielc   =   1.00000, cut     =  10.00000, intdiel =   1.00000

Frozen or restrained atoms:
     ibelly  =       0, ntr     =       0

Molecular dynamics:
     nstlim  =     50000, nscm    =      1000, nrespa  =         1
     t       =   0.00000, dt      =   0.00200, vlimit  =  -1.00000

Berendsen (weak-coupling) temperature regulation:
     temp0   = 300.00000, tempi   = 300.00000, tautp   =   1.00000

Pressure regulation:
     ntp     =       1
     pres0   =   1.00000, comp    =  44.60000, taup    =   2.00000

SHAKE:
     ntc     =       2, jfastw  =       0
     tol     =   0.00001

Ewald parameters:
     verbose =       0, ew_type =       0, nbflag  =       1, use_pme =       1
     vdwmeth =       1, eedmeth =       1, netfrc  =       1
     Box X =   67.337   Box Y =   63.857   Box Z =   63.093
     Alpha =   90.000   Beta  =   90.000   Gamma =   90.000
     NFFT1 =   64       NFFT2 =   64       NFFT3 =   64
     Cutoff=   10.000   Tol   =0.100E-04
     Ewald Coefficient =  0.27511
     Interpolation order =    4

--------------------------------------------------------------------------------
   3.  ATOMIC COORDINATES AND VELOCITIES
--------------------------------------------------------------------------------

UNL
 begin time read from input coords =    20.000 ps

 Number of triangulated 3-point waters found:     7227

     Sum of charges from parm topology file =  -0.00100100
     Forcing neutrality...

--------------------------------------------------------------------------------
   4.  RESULTS
 NSTEP =     1000   TIME(PS) =      22.000  TEMP(K) =   302.29  PRESS =  -384.2
 Etot   =    -54431.7138  EKtot   =     13037.7461  EPtot      =    -67469.4599
 BOND   =         0.9338  ANGLE   =         9.2231  DIHED      =         4.6957
 1-4 NB =         1.7487  1-4 EEL =        -3.6637  VDWAALS    =     10091.2892
 EELEC  =    -77573.6865  EHBOND  =         0.0000  RESTRAINT  =         0.0000
 EKCMT  =      6594.5512  VIRIAL  =      8800.3783  VOLUME     =    265931.9553
                                                    Density    =         0.8137
 ------------------------------------------------------------------------------

      A V E R A G E S   O V E R      50 S T E P S

 NSTEP =    50000   TIME(PS) =     120.000  TEMP(K) =   300.23  PRESS =  -120.4
 Etot   =    -55804.2582  EKtot   =     12948.7459  EPtot      =    -68753.0041
 BOND   =         1.8799  ANGLE   =         9.3906  DIHED      =         4.1435
 1-4 NB =         1.8665  1-4 EEL =        -1.9901  VDWAALS    =     10235.1088
 EELEC  =    -79003.4033  EHBOND  =         0.0000  RESTRAINT  =         0.0000
 EKCMT  =      6502.1749  VIRIAL  =      7122.3574  VOLUME     =    225463.0111
                                                    Density    =         0.9620
 ------------------------------------------------------------------------------

      R M S  F L U C T U A T I O N S

 NSTEP =    50000   TIME(PS) =     120.000  TEMP(K) =     1.75  PRESS =   193.1
 Etot   =       384.0889  EKtot   =        75.3228  EPtot      =       384.7617
 BOND   =         0.9539  ANGLE   =         2.1632  DIHED      =         1.0296
 1-4 NB =         0.5429  1-4 EEL =         0.9004  VDWAALS    =       132.6512
 EELEC  =       467.1407  EHBOND  =         0.0000  RESTRAINT  =         0.0000
 EKCMT  =        58.0112  VIRIAL  =      1004.0421  VOLUME     =     11631.6800
                                                    Density    =         0.0447
 ------------------------------------------------------------------------------
